   12
    -0.00009499
H    -1.58762598    -1.65385795     0.81629699
H    -1.52259302    -0.79972798    -0.50528300
H     0.64831901    -1.61703205     0.11909900
H     2.28531003    -1.74351895    -0.07799100
H     1.54169595     0.51521599     0.13409001
H     1.53028095     1.84606397    -0.79438400
H    -0.52541602     1.55835700     0.13257900
H    -2.14424491     1.98432505    -0.22232300
O    -1.22780800    -1.61621904    -0.06808000
O     1.53590500    -1.13107395     0.00828300
O     1.20587802     1.47968400     0.05908800
O    -1.53255904     1.26014805     0.02621200
